tse_to_opendss/examples/Benchmark Systems/IEEE/IEEE 13 Bus - Distribution/ieee_13bus Target files/dss/data/transformers.dss
! Automatically generated by the Typhoon HIL TSE to OpenDSS converter.

new "TRANSFORMER.REGC" windings=2 Buses=["BUS_650.1", "BUS_REG.1"] KVs=[2.402, 2.402] KVAs=[1666.7, 1666.7] XscArray=1.0 %Rs=[0.1, 0.1] %Noloadloss=0.01 %imag=0 wdg=2 maxtap=1.1 mintap=0.9 numtaps=32
new "TRANSFORMER.XFM1-1" windings=2 Buses=["BUS_633.1.2.3", "BUS_634.1.2.3"] KVs=[4.16, 0.48] KVAs=[500, 500] XscArray=2 %Rs=[0.55, 0.55] %Noloadloss=0.01 %imag=0 conns=[wye, wye]
new "TRANSFORMER.REGB" windings=2 Buses=["BUS_650.2", "BUS_REG.2"] KVs=[2.402, 2.402] KVAs=[1666.7, 1666.7] XscArray=1.0 %Rs=[0.1, 0.1] %Noloadloss=0.01 %imag=0 wdg=2 maxtap=1.1 mintap=0.9 numtaps=32
new "TRANSFORMER.REGA" windings=2 Buses=["BUS_650.3", "BUS_REG.3"] KVs=[2.402, 2.402] KVAs=[1666.7, 1666.7] XscArray=1.0 %Rs=[0.1, 0.1] %Noloadloss=0.01 %imag=0 wdg=2 maxtap=1.1 mintap=0.9 numtaps=32
